Version 4
SHEET 1 2104 1360
WIRE 704 -560 704 -624
WIRE 848 -560 848 -624
WIRE -224 -272 -352 -272
WIRE -16 -272 -16 -368
WIRE -16 -272 -224 -272
WIRE 48 -272 -16 -272
WIRE 192 -272 112 -272
WIRE 288 -272 192 -272
WIRE 1216 -272 1088 -272
WIRE 1424 -272 1424 -368
WIRE 1424 -272 1216 -272
WIRE 1488 -272 1424 -272
WIRE 1632 -272 1552 -272
WIRE 1728 -272 1632 -272
WIRE 288 -224 288 -272
WIRE 1728 -224 1728 -272
WIRE -16 -176 -16 -272
WIRE 1424 -176 1424 -272
WIRE -224 -112 -224 -272
WIRE -176 -112 -224 -112
WIRE 192 -112 192 -272
WIRE 192 -112 144 -112
WIRE 1216 -112 1216 -272
WIRE 1264 -112 1216 -112
WIRE 1632 -112 1632 -272
WIRE 1632 -112 1584 -112
WIRE 496 -96 496 -368
WIRE 1936 -96 1936 -368
WIRE -176 -16 -256 -16
WIRE 448 -16 144 -16
WIRE 1264 -16 1184 -16
WIRE 1888 -16 1584 -16
WIRE 288 48 288 -160
WIRE 496 48 496 0
WIRE 496 48 288 48
WIRE 1728 48 1728 -160
WIRE 1936 48 1936 0
WIRE 1936 48 1728 48
WIRE -352 80 -352 -272
WIRE -320 80 -352 80
WIRE -176 80 -240 80
WIRE 288 80 288 48
WIRE 288 80 144 80
WIRE 1088 80 1088 -272
WIRE 1120 80 1088 80
WIRE 1264 80 1200 80
WIRE 1728 80 1728 48
WIRE 1728 80 1584 80
WIRE 496 96 496 48
WIRE 1936 96 1936 48
WIRE -176 176 -272 176
WIRE 448 176 144 176
WIRE 1264 176 1168 176
WIRE 1888 176 1584 176
WIRE -176 272 -224 272
WIRE 192 272 144 272
WIRE 1264 272 1216 272
WIRE 1632 272 1584 272
WIRE -224 368 -224 272
WIRE -16 368 -16 336
WIRE -16 368 -224 368
WIRE 192 368 192 272
WIRE 192 368 -16 368
WIRE 496 368 496 192
WIRE 496 368 192 368
WIRE 1216 368 1216 272
WIRE 1424 368 1424 336
WIRE 1424 368 1216 368
WIRE 1632 368 1632 272
WIRE 1632 368 1424 368
WIRE 1936 368 1936 192
WIRE 1936 368 1632 368
WIRE -16 416 -16 368
WIRE 1424 416 1424 368
WIRE -720 576 -768 576
WIRE -560 576 -640 576
WIRE -768 592 -768 576
WIRE 0 640 -288 640
WIRE 864 640 768 640
WIRE 1024 640 944 640
WIRE 1152 640 1024 640
WIRE 1024 688 1024 640
WIRE 1152 688 1152 640
WIRE -288 720 -288 640
WIRE -176 720 -288 720
WIRE 0 720 -112 720
WIRE -720 752 -768 752
WIRE -560 752 -640 752
WIRE -288 752 -288 720
WIRE -768 768 -768 752
WIRE 1024 800 1024 752
WIRE 1024 800 768 800
WIRE 1152 800 1152 768
WIRE 1152 800 1024 800
WIRE -720 896 -768 896
WIRE -544 896 -640 896
WIRE -768 928 -768 896
WIRE 16 928 -288 928
WIRE -288 992 -288 928
WIRE -176 992 -288 992
WIRE 16 992 -112 992
WIRE -288 1024 -288 992
FLAG -16 416 0
FLAG 704 -480 0
FLAG -768 768 0
FLAG -768 928 0
FLAG -544 896 triangle
FLAG -288 832 0
FLAG -768 592 0
FLAG -288 1104 0
FLAG 1424 416 0
FLAG 1184 -16 B-
FLAG 1168 176 B+
FLAG 768 640 a
FLAG 496 48 a
FLAG 768 800 b
FLAG 1936 48 b
FLAG 848 -480 0
FLAG 704 -624 Vcc
FLAG -16 -368 Vcc
FLAG 1424 -368 Vcc
FLAG 848 -624 Vbus
FLAG 496 -368 Vbus
FLAG 1936 -368 Vbus
FLAG -560 752 controlA
FLAG -560 576 controlB
FLAG 0 640 A+
FLAG 0 720 A-
FLAG 16 928 B+
FLAG 16 992 B-
FLAG -272 176 A+
FLAG -256 -16 A-
SYMBOL PowerProducts\\LTC7061 -16 80 R0
SYMATTR InstName U1
SYMBOL diode 48 -256 R270
WINDOW 0 32 32 VTop 2
WINDOW 3 0 32 VBottom 2
SYMATTR InstName D1
SYMATTR Value 1N4148
SYMBOL cap 272 -224 R0
SYMATTR InstName C1
SYMATTR Value 100µ
SYMBOL res -224 64 R90
WINDOW 0 0 56 VBottom 2
WINDOW 3 32 56 VTop 2
SYMATTR InstName R1
SYMATTR Value 51k
SYMBOL voltage 704 -576 R0
WINDOW 123 0 0 Left 0
WINDOW 39 0 0 Left 0
SYMATTR InstName V1
SYMATTR Value 10
SYMBOL nmos 448 -96 R0
SYMATTR InstName M1
SYMATTR Value IRFZ44N
SYMBOL nmos 448 96 R0
SYMATTR InstName M2
SYMATTR Value IRFZ44N
SYMBOL voltage -624 752 R90
WINDOW 0 -32 56 VBottom 2
WINDOW 3 32 56 VTop 2
WINDOW 123 0 0 Left 0
WINDOW 39 0 0 Left 0
SYMATTR InstName V5
SYMATTR Value SINE(0 1 60)
SYMBOL voltage -624 896 R90
WINDOW 0 -32 56 VBottom 2
WINDOW 3 32 56 VTop 2
WINDOW 123 0 0 Left 0
WINDOW 39 0 0 Left 0
SYMATTR InstName V6
SYMATTR Value PULSE(-1 1 0 250u 250u 0 500u)
SYMBOL bv -288 736 R0
SYMATTR InstName B1
SYMATTR Value V=if(V(controlA) >= V(triangle), 5, 0)
SYMBOL voltage -624 576 R90
WINDOW 0 -32 56 VBottom 2
WINDOW 3 32 56 VTop 2
WINDOW 123 0 0 Left 0
WINDOW 39 0 0 Left 0
SYMATTR InstName V2
SYMATTR Value SINE(0 1 60 0 0 -180)
SYMBOL bv -288 1008 R0
SYMATTR InstName B2
SYMATTR Value V=if(V(controlB) >= V(triangle), 5, 0)
SYMBOL PowerProducts\\LTC7061 1424 80 R0
SYMATTR InstName U2
SYMBOL diode 1488 -256 R270
WINDOW 0 32 32 VTop 2
WINDOW 3 0 32 VBottom 2
SYMATTR InstName D2
SYMATTR Value 1N4148
SYMBOL cap 1712 -224 R0
SYMATTR InstName C2
SYMATTR Value 100µ
SYMBOL res 1216 64 R90
WINDOW 0 0 56 VBottom 2
WINDOW 3 32 56 VTop 2
SYMATTR InstName R2
SYMATTR Value 51k
SYMBOL nmos 1888 -96 R0
SYMATTR InstName M3
SYMATTR Value IRFZ44N
SYMBOL nmos 1888 96 R0
SYMATTR InstName M4
SYMATTR Value IRFZ44N
SYMBOL ind 848 656 R270
WINDOW 0 32 56 VTop 2
WINDOW 3 5 56 VBottom 2
SYMATTR InstName L1
SYMATTR Value 10m
SYMBOL cap 1008 688 R0
SYMATTR InstName C3
SYMATTR Value 100µ
SYMBOL res 1136 672 R0
SYMATTR InstName R3
SYMATTR Value 10
SYMBOL voltage 848 -576 R0
WINDOW 123 0 0 Left 0
WINDOW 39 0 0 Left 0
SYMATTR InstName V3
SYMATTR Value 12
SYMBOL Digital\\inv -176 656 R0
SYMATTR InstName A1
SYMATTR SpiceLine Vhigh=5V
SYMBOL Digital\\inv -176 928 R0
SYMATTR InstName A2
SYMATTR SpiceLine Vhigh=5V
TEXT -744 1080 Left 2 !.tran 0.05
