Version 4
SHEET 1 2104 1360
WIRE 704 -560 704 -624
WIRE 848 -560 848 -624
WIRE 880 -304 752 -304
WIRE 1088 -304 1088 -400
WIRE 1088 -304 880 -304
WIRE 1152 -304 1088 -304
WIRE 1296 -304 1216 -304
WIRE 1392 -304 1296 -304
WIRE -224 -288 -352 -288
WIRE -16 -288 -16 -384
WIRE -16 -288 -224 -288
WIRE 48 -288 -16 -288
WIRE 192 -288 112 -288
WIRE 288 -288 192 -288
WIRE 1392 -256 1392 -304
WIRE 288 -240 288 -288
WIRE 1088 -208 1088 -304
WIRE -16 -192 -16 -288
WIRE 880 -144 880 -304
WIRE 928 -144 880 -144
WIRE 1296 -144 1296 -304
WIRE 1296 -144 1248 -144
WIRE -224 -128 -224 -288
WIRE -176 -128 -224 -128
WIRE 192 -128 192 -288
WIRE 192 -128 144 -128
WIRE 1600 -128 1600 -400
WIRE 496 -112 496 -384
WIRE 928 -48 848 -48
WIRE 1424 -48 1248 -48
WIRE 1552 -48 1504 -48
WIRE -176 -32 -256 -32
WIRE 320 -32 144 -32
WIRE 448 -32 400 -32
WIRE 1392 16 1392 -192
WIRE 1600 16 1600 -32
WIRE 1600 16 1392 16
WIRE 288 32 288 -176
WIRE 496 32 496 -16
WIRE 496 32 288 32
WIRE 752 48 752 -304
WIRE 784 48 752 48
WIRE 928 48 864 48
WIRE 1392 48 1392 16
WIRE 1392 48 1248 48
WIRE -352 64 -352 -288
WIRE -320 64 -352 64
WIRE -176 64 -240 64
WIRE 288 64 288 32
WIRE 288 64 144 64
WIRE 1600 64 1600 16
WIRE 496 80 496 32
WIRE 928 144 832 144
WIRE 1424 144 1248 144
WIRE 1552 144 1504 144
WIRE -176 160 -272 160
WIRE 320 160 144 160
WIRE 448 160 400 160
WIRE 928 240 880 240
WIRE 1296 240 1248 240
WIRE -176 256 -224 256
WIRE 192 256 144 256
WIRE 880 336 880 240
WIRE 1088 336 1088 304
WIRE 1088 336 880 336
WIRE 1296 336 1296 240
WIRE 1296 336 1088 336
WIRE 1600 336 1600 160
WIRE 1600 336 1296 336
WIRE -224 352 -224 256
WIRE -16 352 -16 320
WIRE -16 352 -224 352
WIRE 192 352 192 256
WIRE 192 352 -16 352
WIRE 496 352 496 176
WIRE 496 352 192 352
WIRE 1088 384 1088 336
WIRE -16 400 -16 352
WIRE 32 560 -16 560
WIRE 192 560 112 560
WIRE -16 576 -16 560
WIRE 752 624 464 624
WIRE 32 736 -16 736
WIRE 192 736 112 736
WIRE 464 736 464 624
WIRE 1424 736 1152 736
WIRE 1664 736 1488 736
WIRE 1824 736 1744 736
WIRE 1952 736 1824 736
WIRE -16 752 -16 736
WIRE 1424 768 1424 736
WIRE 1488 768 1488 736
WIRE 1824 784 1824 736
WIRE 1952 816 1952 736
WIRE 32 880 -16 880
WIRE 208 880 112 880
WIRE 1424 896 1424 848
WIRE 1424 896 1152 896
WIRE 1488 896 1488 848
WIRE 1824 896 1824 848
WIRE 1824 896 1488 896
WIRE 1952 896 1824 896
WIRE 2096 896 1952 896
WIRE -16 912 -16 880
WIRE 768 912 464 912
WIRE 464 1008 464 912
FLAG -16 400 0
FLAG 704 -480 0
FLAG -16 752 0
FLAG -16 912 0
FLAG 208 880 triangle
FLAG 464 816 0
FLAG -16 576 0
FLAG 464 1088 0
FLAG 1088 384 0
FLAG 848 -48 High
FLAG 832 144 Low
FLAG 1152 736 a
FLAG 496 32 a
FLAG 1152 896 b
FLAG 1600 16 b
FLAG 848 -480 0
FLAG 704 -624 Vcc
FLAG -16 -384 Vcc
FLAG 1088 -400 Vcc
FLAG 848 -624 Vbus
FLAG 496 -384 Vbus
FLAG 1600 -400 Vbus
FLAG 192 736 controlA
FLAG 192 560 controlB
FLAG 752 624 High
FLAG 768 912 Low
FLAG -272 160 High
FLAG -256 -32 Low
SYMBOL PowerProducts\\LTC7061 -16 64 R0
SYMATTR InstName U1
SYMBOL diode 48 -272 R270
WINDOW 0 32 32 VTop 2
WINDOW 3 0 32 VBottom 2
SYMATTR InstName D1
SYMATTR Value 1N4148
SYMBOL cap 272 -240 R0
SYMATTR InstName C1
SYMATTR Value 47µ
SYMBOL res -224 48 R90
WINDOW 0 0 56 VBottom 2
WINDOW 3 32 56 VTop 2
SYMATTR InstName R1
SYMATTR Value 51k
SYMBOL voltage 704 -576 R0
WINDOW 123 0 0 Left 0
WINDOW 39 0 0 Left 0
SYMATTR InstName V1
SYMATTR Value 12
SYMBOL nmos 448 -112 R0
SYMATTR InstName M1
SYMATTR Value IRFZ44N
SYMBOL nmos 448 80 R0
SYMATTR InstName M2
SYMATTR Value IRFZ44N
SYMBOL voltage 128 736 R90
WINDOW 0 -32 56 VBottom 2
WINDOW 3 32 56 VTop 2
WINDOW 123 0 0 Left 0
WINDOW 39 0 0 Left 0
SYMATTR InstName V5
SYMATTR Value SINE(0 1 120)
SYMBOL voltage 128 880 R90
WINDOW 0 -32 56 VBottom 2
WINDOW 3 32 56 VTop 2
WINDOW 123 0 0 Left 0
WINDOW 39 0 0 Left 0
SYMATTR InstName V6
SYMATTR Value PULSE(-1 1 0 100u 100u 0 200u)
SYMBOL bv 464 720 R0
SYMATTR InstName B1
SYMATTR Value V=if(V(controlA) >= V(triangle), 5, 0)
SYMBOL voltage 128 560 R90
WINDOW 0 -32 56 VBottom 2
WINDOW 3 32 56 VTop 2
WINDOW 123 0 0 Left 0
WINDOW 39 0 0 Left 0
SYMATTR InstName V2
SYMATTR Value SINE(0 1 120 0 0 -180)
SYMBOL bv 464 992 R0
SYMATTR InstName B2
SYMATTR Value V=if(V(controlB) >= V(triangle), 5, 0)
SYMBOL PowerProducts\\LTC7061 1088 48 R0
SYMATTR InstName U2
SYMBOL diode 1152 -288 R270
WINDOW 0 32 32 VTop 2
WINDOW 3 0 32 VBottom 2
SYMATTR InstName D2
SYMATTR Value 1N4148
SYMBOL cap 1376 -256 R0
SYMATTR InstName C2
SYMATTR Value 47µ
SYMBOL res 880 32 R90
WINDOW 0 0 56 VBottom 2
WINDOW 3 32 56 VTop 2
SYMATTR InstName R2
SYMATTR Value 51k
SYMBOL nmos 1552 -128 R0
SYMATTR InstName M3
SYMATTR Value IRFZ44N
SYMBOL nmos 1552 64 R0
SYMATTR InstName M4
SYMATTR Value IRFZ44N
SYMBOL ind 1648 752 R270
WINDOW 0 32 56 VTop 2
WINDOW 3 5 56 VBottom 2
SYMATTR InstName L1
SYMATTR Value 2.9m
SYMBOL cap 1808 784 R0
SYMATTR InstName C3
SYMATTR Value 29µ
SYMBOL voltage 848 -576 R0
WINDOW 123 0 0 Left 0
WINDOW 39 0 0 Left 0
SYMATTR InstName V3
SYMATTR Value 12
SYMBOL res 416 -48 R90
WINDOW 0 0 56 VBottom 2
WINDOW 3 32 56 VTop 2
SYMATTR InstName R4
SYMATTR Value 100
SYMBOL res 416 144 R90
WINDOW 0 0 56 VBottom 2
WINDOW 3 32 56 VTop 2
SYMATTR InstName R5
SYMATTR Value 100
SYMBOL res 1520 128 R90
WINDOW 0 0 56 VBottom 2
WINDOW 3 32 56 VTop 2
SYMATTR InstName R6
SYMATTR Value 100
SYMBOL res 1520 -64 R90
WINDOW 0 0 56 VBottom 2
WINDOW 3 32 56 VTop 2
SYMATTR InstName R7
SYMATTR Value 100
SYMBOL ind2 1440 864 R180
WINDOW 0 36 80 Left 2
WINDOW 3 36 40 Left 2
SYMATTR InstName L2
SYMATTR Value 1mL
SYMATTR Type ind
SYMBOL ind2 1504 864 R180
WINDOW 0 36 80 Left 2
WINDOW 3 36 40 Left 2
SYMATTR InstName L3
SYMATTR Value 100mL
SYMATTR Type ind
SYMBOL res 1936 800 R0
SYMATTR InstName R3
SYMATTR Value 10
TEXT 8 1064 Left 2 !.tran 0.05
TEXT 1296 600 Left 4 ;Filter
TEXT -40 -528 Left 2 ;Leg A
TEXT 1168 -512 Left 2 ;Leg B
TEXT 1400 712 Left 2 !K L2 L3 1
